Sistemas_Exemplos/33_Barras/Anarede/33barras.pwf
TITU
Sistema Teste - 33 Barras
DOPC IMPR
(Op) E (Op) E (Op) E (Op) E (Op) E (Op) E (Op) E (Op) E (Op) E (Op) E
QLIM L CREM L CTAP L STEP L NEWT L MOCT L MOCG L MOCF L RCVG L RMON L
FILE L
99999
DCTE
(Mn) ( Val) (Mn) ( Val) (Mn) ( Val) (Mn) ( Val) (Mn) ( Val) (Mn) ( Val)
BASE   100. DASE   100. TEPA     1. EXST     4. TETP     5. TBPA     5.
TLPP     1. TEPR     1. QLST     4. TLPR     1. TLPQ     2. TSBZ    .01
TSBA     5. ASTP    .05 VSTP     5. TLVC     .5 TLTC    .01 TSFR  .1E-7
ZMAX   500. TLPV     .5 VDVM   200. VDVN    40. TUDC   .001 TADC    .01
PGER    30. TPST     2. VFLD    70. ZMIN   .001 HIST    470 LFIT     10
ACIT     90 LFCV      1 DCIT     10 VSIT     10 LPIT     50 LFLP     10
PDIT     10 LCRT     24 LPRT     60 CSTP   500.
ICIT     30 DMAX      5 FDIV     2. ICMN    .05 VART     5. TSTP     32
ICMV     .5 APAS    90. CPAR    70. VAVT     2. VAVF     5. VMVF    15.
VPVT     2. VPVF     5. VPMF    10. VSVF    20. VINF     1. VSUP     1.
99999
DBAR
(No )OETGb(   nome   )Gl( V)( A)( Pg)( Qg)( Qn)( Qm)(Bc  )( Pl)( Ql)( Sh)Are(Vf)
  800 L1 2GBMUNHOZ-3GR A1049  0.1207.228.2-800. 800.                       11000
  808 L1 2SCAXIAS--4GR A1045 11.1150. 91.9-600. 600.                       21000
  810 L1 2SSEGREDO-4GR A10454.661200.-68.6-400. 532.                       21000
  814 L  1BATEIAS--230 A1000-24.                          735.4 191.       11000
  824 L  2GBMUNHOZ-525 B1057-7.2                                           11000
  839 L  1CASCAVEL-230 A10012.07                                           21000
  840 L  3CASCAVEL-138 A 997-.87                           159.  36.       21000
  848 L  3FCHOPIM--138 A10073.52                            94.  18.       21000
  856 L  2SEGREDO--525 B1059-1.9                                           21000
  895 L  2BATEIAS--525 B1005-22.                                           11000
  896 L  2CASCAVELO525 B10583.74                                           21000
  897 L  2SCAXIAS--525 B10674.83                                           21000
  898 L  1FCHOPIM--230 A10236.85                                           21000
  904 L2 2ITA------3GR A1045-12. 270.-253.-475. 475.                       11000
  915 L1 2MACHADIN-1GR A1049 -9. 300.-74.7-516. 465.                       11000
  919 L1 1SOSOR1A4-4GR A102014.5 700.124.9-148. 220.                       21000
  925 L1 2SSANTIAG-3GR A10457.41 950.65.97-440. 420.                       21000
  933 L  2AREIA----525 B1056-7.6                                           11000
  934 L  1AREIA----230 A1000 -7.                           237.  59.       21000
  938 L  2BLUMENAU-525 B1036-27.                                           11000
  939 L  1BLUMENAU-230 A1000-29.                          1149.53.06       11000
  955 L  2CNOVOS---525 B1085-17.                                           11000
  959 L  2CURITIBA-525 B1006-23.                                     100.  11000
  960 L  1CURITIBA-230 A1000-25.                          844.7469.1       11000
  964 L  2CAXIAS---525 B1076-24.                                           11000
  965 L  1CAXIAS---230 A1000-27.                          755.656.24       11000
  976 L  2GRAVATAI-525 B1054-27.                                           11000
  995 L  2ITA------525 B1083-14.                                           11000
 1030 L  2MACHADIN-525 B1085-15.                                           11000
 1047 L  1SOSORIO--230 A10297.89                                           21000
 1060 L  2SSANTIAG-525 B1069-.17                                           21000
 1210 L  1GRAVATAI-230 A1000-30.                          1228. 425.       21000
 2458 L  1CASCAVEL-230 A10001.75                           403. 126.       21000
99999
DLIN
(De )d O d(Pa )NcEP ( R% )( X% )(Mvar)(Tap)(Tmn)(Tmx)(Phs)(Bc  )(Cn)(Ce)Ns
  814       895 1     .032 1.146      1.007  .95 1.15        814 600 60032
  814       895 2      .031.1651      1.007  .95 1.15        814 600 60032
  824       800 1           1.12      1.024                     16761676
  824       933 1      .01  .12415.204                          21822182
  824       933 2      .01  .12615.428                          21822182
  839       840 1           6.64      .9926 .8691.043       -840 150 15032
  839       840 2           6.29      .9926 .8691.043       -840 150 15032
  839       898 1     1.13  6.9912.617                           189 318
  839      1047 1     1.22  7.69 13.81                           189 323
  839      2458 1      .22  1.091.8601                           319 413
  839      2458 2      .17  1.032.0537                           356 356
  856       810 1           1.05         1.                     12601260
  856       933 1     .052  .65480.493                          22732273
  856      1060 1     .056  .69785.746                          21822182
  896       897 1      .05   .73 78.06                          16371637
  897       808 1           1.02      1.024                     13441478
  898       848 1           6.36      1.003 .8691.043       -848 150 15032
  898      1047 1      .15   .891.6317                           324 324
  933       895 1       .2  2.55312.72                          21102110
  933       955 1     .162 2.048250.17                          21102110
  933       959 1       .2  2.69 336.4                          21822182
  934       933 1 T   .031 1.207      .9562 .9221.127        934 672 80632
  934      1047 1    3.04515.73827.123                           319 319
  934      1047 2    3.04115.71827.089                           319 319
  938       955 1    .25562.9224 360.4                          20372037
  938       959 1     .127 1.603195.89                          12661266
  939       938 1 T   .031  1.15      .9675 .9451.155        939 672 80632
  939       938 2 T   .032 1.163      .9675 .9451.155        939 672 80632
  939       938 3          1.277      .9675 .9451.155        939 672 67232
  955       964 1    .18772.3467287.24                          16881688
  959       895 1      .05   .44 47.58                          21102110
  960       959 1 T   .032 1.163      1.024 .9451.155        960 672 80632
  960       959 2 T   .031 1.166      1.024 .9451.155        960 672 80632
  964       976 1    .0733 .9164112.17                          16881688
  965       964 1 T    .02 1.211      .9329   .9  1.1        965 672 80632
  965       964 2 T    .02 1.233      .9329   .9  1.1        965 672 80632
  976       995 1     .282 3.852 493.7                          16881688
  995       904 1 T .012331.5383         1.                     16251625
  995       964 1    .16433.0339354.88                          21822182
  995      1030 1     .073   .92112.26                          21822182
  995      1060 1     .172  2.17265.16                          21102110
 1030       915 1 T        4.131         1.                     12541254
 1030       955 1     .047   .5971.818                          21822182
 1047       919 1 T .024251.7022      1.025                      788 788
 1060       897 1     .076 1.171124.58                          23702681
 1060       925 1 T .01133 1.515      1.024                     14021402
 1210       976 1 T    .03 1.219      .9652 .9451.155       1210 672 80632
 1210       976 2 T   .039 1.138      .9652 .9451.155       1210 672 80632
 1210       976 3 T   .036 1.217      .9652 .9451.155       1210 672 80632
 2458       896 1           1.27      .9614   .9  1.1       2458 600 60032
99999
DGLT
(G (Vmn) (Vmx)
 A   .95  1.05
 B   .95  1.09
99999
DARE
(Ar    (Xchg)     (      Identificacao da area       ) (Xmin) (Xmax)
  1        0.     AREA UM
  2        0.     AREA DOIS
99999
DGBT
(G ( kV)
 2  500.
 1  230.
 3  138.
99999
DGGB
(G Co Es
 2  2  2
 1  4  2
 3 14  2
99999
DGER
(No ) O (Pmn ) (Pmx ) ( Fp) (FpR) (FPn) (Fa) (Fr) (Ag) ( Xq) (Sno)
904            1500   0.65
915            820    0.35
(
(  800          1230   0.15 
(  808          1300   0.16 
(  810          1250   0.16 
(  904          1500   0.19 
(  915          820    0.10 
(  919          710    0.09 
(  925          1000   0.14 
99999
DANC
(Ar ( Fp ) ( Fq ) ( Fs )
2   40
99999
(
EXLF NEWT DPER BPSI
(
FIM